Version 4
SHEET 1 1156 772
WIRE -1296 -400 -2208 -400
WIRE -1152 -400 -1296 -400
WIRE -816 -400 -1040 -400
WIRE -544 -400 -816 -400
WIRE -432 -400 -544 -400
WIRE -1296 -368 -1296 -400
WIRE -1152 -368 -1152 -400
WIRE -1040 -288 -1040 -400
WIRE -816 -288 -816 -400
WIRE -544 -288 -544 -400
WIRE -432 -288 -432 -400
WIRE -1296 -272 -1296 -288
WIRE -1088 -272 -1296 -272
WIRE -1296 -224 -1296 -272
WIRE -1984 -176 -2080 -176
WIRE -2080 -144 -2080 -176
WIRE -1344 -144 -2080 -144
WIRE -1040 -112 -1040 -192
WIRE -816 -112 -816 -224
WIRE -816 -112 -1040 -112
WIRE -768 -112 -816 -112
WIRE -656 -112 -688 -112
WIRE -544 -112 -544 -224
WIRE -544 -112 -576 -112
WIRE -432 -112 -432 -224
WIRE -432 -112 -544 -112
WIRE -1040 -48 -1040 -112
WIRE -816 -32 -816 -112
WIRE -544 -16 -544 -112
WIRE -432 -16 -432 -112
WIRE -1152 32 -1152 -288
WIRE -1088 32 -1152 32
WIRE -1152 112 -1152 32
WIRE -1040 144 -1040 48
WIRE -816 144 -816 32
WIRE -816 144 -1040 144
WIRE -544 144 -544 48
WIRE -544 144 -816 144
WIRE -432 144 -432 48
WIRE -432 144 -544 144
WIRE -1584 160 -1728 160
WIRE -1728 192 -1728 160
WIRE -1200 192 -1728 192
WIRE -2208 224 -2208 -400
WIRE -2080 224 -2080 -144
WIRE -1728 224 -1728 192
WIRE -2208 384 -2208 304
WIRE -2080 384 -2080 304
WIRE -2080 384 -2208 384
WIRE -1728 384 -1728 304
WIRE -1728 384 -2080 384
WIRE -1296 384 -1296 -128
WIRE -1296 384 -1728 384
WIRE -1152 384 -1152 208
WIRE -1152 384 -1296 384
WIRE -432 384 -432 144
WIRE -432 384 -1152 384
WIRE -2080 416 -2080 384
FLAG -2080 416 0
FLAG -1584 160 control_nmos
FLAG -1984 -176 control_pmos
SYMBOL cap -448 -288 R0
SYMATTR InstName C2
SYMATTR Value 99000
SYMATTR SpiceLine IC=3.3
SYMBOL voltage -2080 208 R0
WINDOW 123 0 0 Left 0
WINDOW 39 0 0 Left 0
SYMATTR InstName V2
SYMATTR Value PULSE(0 3 0.1 0 0 0.0001 0.0002)
SYMBOL pmos -1088 -192 M180
SYMATTR InstName M4
SYMATTR Value Si7137DP
SYMBOL nmos -1088 -48 R0
SYMATTR InstName M6
SYMATTR Value PSMN0R925YLC
SYMBOL cap -448 -16 R0
SYMATTR InstName C1
SYMATTR Value 99000
SYMATTR SpiceLine IC=3.2
SYMBOL ind -672 -96 R270
WINDOW 0 32 56 VTop 2
WINDOW 3 5 56 VBottom 2
SYMATTR InstName L1
SYMATTR Value 0.0000047
SYMBOL voltage -1728 208 R0
WINDOW 123 0 0 Left 0
WINDOW 39 0 0 Left 0
SYMATTR InstName V1
SYMATTR Value PULSE(3 0 0.10013 0 0 0.00002 0.0002)
SYMBOL schottky -800 -224 R180
WINDOW 0 24 64 Left 2
WINDOW 3 24 0 Left 2
SYMATTR InstName D3
SYMBOL schottky -800 32 R180
WINDOW 0 24 64 Left 2
WINDOW 3 24 0 Left 2
SYMATTR InstName D1
SYMBOL res -1312 -384 R0
SYMATTR InstName R1
SYMATTR Value 1000
SYMBOL res -1168 -384 R0
SYMATTR InstName R2
SYMATTR Value 1000
SYMBOL nmos -1200 112 R0
SYMATTR InstName M1
SYMATTR Value PSMN0R925YLC
SYMBOL nmos -1344 -224 R0
SYMATTR InstName M2
SYMATTR Value PSMN0R925YLC
SYMBOL voltage -2208 208 R0
WINDOW 123 0 0 Left 0
WINDOW 39 0 0 Left 0
SYMATTR InstName V3
SYMATTR Value 20
SYMBOL cap -560 -288 R0
SYMATTR InstName C3
SYMATTR Value 0.0047
SYMBOL res -672 -128 R90
WINDOW 0 0 56 VBottom 2
WINDOW 3 32 56 VTop 2
SYMATTR InstName R3
SYMATTR Value 0.1
SYMBOL cap -560 -16 R0
SYMATTR InstName C4
SYMATTR Value 0.0047
TEXT -1928 -480 Left 2 !.tran 100
