Version 4
SHEET 1 1156 772
WIRE 16 -496 -272 -496
WIRE 16 -480 16 -496
WIRE 208 -352 -80 -352
WIRE 352 -352 304 -352
WIRE 880 -352 448 -352
WIRE 16 -272 16 -400
WIRE 224 -272 224 -304
WIRE 224 -272 16 -272
WIRE 432 -272 432 -304
WIRE 432 -272 224 -272
WIRE 880 -176 880 -352
WIRE 432 -112 432 -272
WIRE -272 -32 -272 -496
WIRE -80 -32 -80 -352
WIRE 432 -32 432 -112
WIRE 880 0 880 -96
WIRE 384 48 336 48
WIRE -272 80 -272 48
WIRE 432 96 432 64
WIRE 880 128 880 64
WIRE -80 144 -80 48
WIRE -80 352 -80 224
WIRE 208 352 -80 352
WIRE 416 352 304 352
WIRE 704 352 512 352
WIRE 880 352 880 208
WIRE 880 352 704 352
WIRE 224 448 224 400
WIRE 224 448 192 448
WIRE 304 448 224 448
WIRE 336 448 336 48
WIRE 336 448 304 448
WIRE 400 448 336 448
WIRE 496 448 496 400
WIRE 496 448 400 448
WIRE -80 464 -80 352
WIRE 192 528 192 448
WIRE 304 528 304 448
WIRE 192 672 192 608
WIRE 304 672 304 608
WIRE 304 672 192 672
WIRE 192 688 192 672
FLAG 192 688 0
FLAG 432 96 0
FLAG -272 80 0
FLAG -80 464 0
FLAG 880 -352 BALANCE_PLUS
FLAG 704 352 BALANCE_MINUS
FLAG 432 -112 PMOS_CONTROL
FLAG 400 448 NMOS_CONTROL
SYMBOL res -96 128 R0
SYMATTR InstName R1
SYMATTR Value 0.1
SYMBOL voltage -80 -48 R0
WINDOW 123 0 0 Left 0
WINDOW 39 0 0 Left 0
SYMATTR InstName V1
SYMATTR Value PULSE(0 5 0.01 0 0 1 1)
SYMBOL voltage 880 -192 R0
WINDOW 123 0 0 Left 0
WINDOW 39 0 0 Left 0
SYMATTR InstName V3
SYMATTR Value 0
SYMBOL res 864 112 R0
SYMATTR InstName R2
SYMATTR Value 3.9
SYMBOL voltage 192 512 R0
WINDOW 123 0 0 Left 0
WINDOW 39 0 0 Left 0
SYMATTR InstName V2
SYMATTR Value PULSE(0 10 0.011 0 0 1 1)
SYMBOL nmos 384 -32 R0
SYMATTR InstName M2
SYMBOL cap 864 0 R0
SYMATTR InstName C1
SYMATTR Value 0.002
SYMBOL pmos 304 -304 M270
SYMATTR InstName M3
SYMBOL pmos 352 -304 R270
SYMATTR InstName M4
SYMBOL voltage -272 -48 R0
WINDOW 123 0 0 Left 0
WINDOW 39 0 0 Left 0
SYMATTR InstName V5
SYMATTR Value 10
SYMBOL res 0 -496 R0
SYMATTR InstName R3
SYMATTR Value 100000
SYMBOL nmos 416 400 R270
SYMATTR InstName M5
SYMBOL nmos 304 400 M270
SYMATTR InstName M6
SYMBOL res 288 512 R0
SYMATTR InstName R5
SYMATTR Value 100000
TEXT -288 552 Left 2 !.tran 0.1
