Version 4
SHEET 1 1156 772
WIRE -1072 -608 -1856 -608
WIRE -1856 -544 -1856 -608
WIRE -1072 -544 -1072 -608
WIRE -1488 -400 -1664 -400
WIRE -1216 -400 -1392 -400
WIRE -1024 -400 -1216 -400
WIRE -768 -400 -928 -400
WIRE -1664 -336 -1664 -400
WIRE -1408 -336 -1408 -352
WIRE -1408 -336 -1552 -336
WIRE -1072 -336 -1072 -464
WIRE -944 -336 -944 -352
WIRE -944 -336 -1072 -336
WIRE -1664 -240 -1664 -272
WIRE -1488 -240 -1664 -240
WIRE -1216 -240 -1216 -256
WIRE -1216 -240 -1392 -240
WIRE -1024 -240 -1216 -240
WIRE -816 -240 -928 -240
WIRE -1552 -176 -1552 -336
WIRE -1408 -176 -1408 -192
WIRE -1408 -176 -1552 -176
WIRE -1072 -176 -1072 -336
WIRE -944 -176 -944 -192
WIRE -944 -176 -1072 -176
WIRE -1664 -80 -1664 -240
WIRE -1488 -80 -1664 -80
WIRE -1216 -80 -1392 -80
WIRE -1024 -80 -1216 -80
WIRE -768 -80 -768 -400
WIRE -768 -80 -928 -80
WIRE -1664 -32 -1664 -80
WIRE -1552 -16 -1552 -176
WIRE -1408 -16 -1408 -32
WIRE -1408 -16 -1552 -16
WIRE -1072 -16 -1072 -176
WIRE -944 -16 -944 -32
WIRE -944 -16 -1072 -16
WIRE -1664 80 -1664 32
WIRE -1488 80 -1664 80
WIRE -1216 80 -1216 64
WIRE -1216 80 -1392 80
WIRE -1024 80 -1216 80
WIRE -816 80 -816 -240
WIRE -816 80 -928 80
WIRE -1072 144 -1072 -16
WIRE -944 144 -944 128
WIRE -944 144 -1072 144
WIRE -1072 160 -1072 144
WIRE -1552 176 -1552 -16
WIRE -1408 176 -1408 128
WIRE -1408 176 -1552 176
WIRE -1184 176 -1408 176
WIRE -1552 224 -1552 176
WIRE -1184 240 -1184 176
WIRE -1120 240 -1184 240
WIRE -1856 384 -1856 -464
WIRE -1664 384 -1664 80
WIRE -1664 384 -1856 384
WIRE -1552 384 -1552 304
WIRE -1552 384 -1664 384
WIRE -1072 384 -1072 256
WIRE -1072 384 -1552 384
WIRE -1664 432 -1664 384
FLAG -1664 432 0
SYMBOL cap -1680 -336 R0
SYMATTR InstName C2
SYMATTR Value 1
SYMATTR SpiceLine IC=3.1
SYMBOL cap -1680 -32 R0
SYMATTR InstName C3
SYMATTR Value 1
SYMATTR SpiceLine IC=3.3
SYMBOL nmos -1488 -352 R270
SYMATTR InstName M1
SYMATTR Value Si7336ADP
SYMBOL res -1232 -352 R0
SYMATTR InstName R4
SYMATTR Value 1
SYMBOL cap -1232 -400 R0
SYMATTR InstName C1
SYMATTR Value 0.0001
SYMBOL voltage -1856 -560 R0
WINDOW 123 0 0 Left 0
WINDOW 39 0 0 Left 0
SYMATTR InstName V1
SYMATTR Value 20
SYMBOL nmos -1488 -192 R270
SYMATTR InstName M2
SYMATTR Value Si7336ADP
SYMBOL nmos -1488 -32 R270
SYMATTR InstName M3
SYMATTR Value Si7336ADP
SYMBOL nmos -1488 128 R270
SYMATTR InstName M4
SYMATTR Value Si7336ADP
SYMBOL res -1232 -32 R0
SYMATTR InstName R1
SYMATTR Value 1
SYMBOL cap -1232 -80 R0
SYMATTR InstName C4
SYMATTR Value 0.0001
SYMBOL nmos -1120 160 R0
SYMATTR InstName M9
SYMBOL voltage -1552 208 R0
WINDOW 123 0 0 Left 0
WINDOW 39 0 0 Left 0
SYMATTR InstName V2
SYMATTR Value PULSE(0 20 0.1 0 0 0.01 0.02)
SYMBOL res -1088 -560 R0
SYMATTR InstName R2
SYMATTR Value 10000
SYMBOL nmos -1024 -352 R270
SYMATTR InstName M5
SYMATTR Value Si7336ADP
SYMBOL nmos -1024 -192 R270
SYMATTR InstName M6
SYMATTR Value Si7336ADP
SYMBOL nmos -1024 -32 R270
SYMATTR InstName M7
SYMATTR Value Si7336ADP
SYMBOL nmos -1024 128 R270
SYMATTR InstName M8
SYMATTR Value Si7336ADP
TEXT -2120 336 Left 2 !.tran 1
