Version 4
SHEET 1 1156 772
WIRE -3456 -560 -4000 -560
WIRE -3280 -560 -3456 -560
WIRE -2624 -560 -3280 -560
WIRE -2448 -560 -2624 -560
WIRE -1376 -560 -1520 -560
WIRE -1104 -560 -1280 -560
WIRE -912 -560 -1104 -560
WIRE -656 -560 -816 -560
WIRE -512 -560 -656 -560
WIRE -3456 -528 -3456 -560
WIRE -3280 -528 -3280 -560
WIRE -2624 -528 -2624 -560
WIRE -2448 -528 -2448 -560
WIRE -1360 -496 -1360 -512
WIRE -1360 -496 -2320 -496
WIRE -832 -480 -832 -512
WIRE -832 -480 -3152 -480
WIRE -1104 -464 -1104 -560
WIRE -656 -416 -656 -560
WIRE -512 -416 -512 -560
WIRE -3456 -400 -3456 -448
WIRE -3152 -400 -3152 -480
WIRE -3152 -400 -3456 -400
WIRE -2624 -400 -2624 -448
WIRE -2320 -400 -2320 -496
WIRE -2320 -400 -2624 -400
WIRE -1104 -352 -1104 -400
WIRE -3456 -320 -3456 -400
WIRE -3184 -320 -3456 -320
WIRE -2624 -320 -2624 -400
WIRE -2352 -320 -2624 -320
WIRE -3280 -272 -3280 -448
WIRE -3184 -272 -3280 -272
WIRE -2448 -272 -2448 -448
WIRE -2352 -272 -2448 -272
WIRE -1360 -224 -1488 -224
WIRE -1104 -224 -1104 -272
WIRE -1104 -224 -1264 -224
WIRE -912 -224 -1104 -224
WIRE -656 -224 -656 -352
WIRE -656 -224 -816 -224
WIRE -2448 -176 -2448 -272
WIRE -1344 -176 -2448 -176
WIRE -3280 -160 -3280 -272
WIRE -832 -160 -832 -176
WIRE -832 -160 -3280 -160
WIRE -656 -112 -656 -224
WIRE -512 -112 -512 -352
WIRE -512 -112 -656 -112
WIRE -1520 -64 -1520 -560
WIRE -1360 -64 -1520 -64
WIRE -1104 -64 -1264 -64
WIRE -912 -64 -1104 -64
WIRE -656 -64 -656 -112
WIRE -656 -64 -816 -64
WIRE -2624 0 -2624 -320
WIRE -1344 0 -1344 -16
WIRE -1344 0 -2624 0
WIRE -3456 32 -3456 -320
WIRE -832 32 -832 -16
WIRE -832 32 -3456 32
WIRE -1104 64 -1104 -64
WIRE -2448 80 -2448 -176
WIRE -2208 80 -2448 80
WIRE -656 80 -656 -64
WIRE -512 80 -512 -112
WIRE -3456 128 -3456 32
WIRE -3360 128 -3456 128
WIRE -3280 128 -3280 -160
WIRE -3168 128 -3280 128
WIRE -2624 128 -2624 0
WIRE -2528 128 -2624 128
WIRE -3456 160 -3456 128
WIRE -3280 160 -3280 128
WIRE -2624 160 -2624 128
WIRE -2448 160 -2448 80
WIRE -1104 192 -1104 128
WIRE -3504 240 -3856 240
WIRE -3360 240 -3360 128
WIRE -3328 240 -3360 240
WIRE -2672 240 -3024 240
WIRE -2528 240 -2528 128
WIRE -2496 240 -2528 240
WIRE -4000 272 -4000 -560
WIRE -3856 272 -3856 240
WIRE -3024 272 -3024 240
WIRE -1488 320 -1488 -224
WIRE -1344 320 -1488 320
WIRE -1104 320 -1104 272
WIRE -1104 320 -1248 320
WIRE -912 320 -1104 320
WIRE -656 320 -656 144
WIRE -656 320 -816 320
WIRE -1488 336 -1488 320
WIRE -2208 368 -2208 80
WIRE -1328 368 -2208 368
WIRE -3168 384 -3168 128
WIRE -832 384 -832 368
WIRE -832 384 -3168 384
WIRE -4000 416 -4000 352
WIRE -3856 416 -3856 352
WIRE -3856 416 -4000 416
WIRE -3456 416 -3456 256
WIRE -3456 416 -3856 416
WIRE -3280 416 -3280 256
WIRE -3280 416 -3456 416
WIRE -3024 416 -3024 352
WIRE -3024 416 -3280 416
WIRE -2624 416 -2624 256
WIRE -2624 416 -3024 416
WIRE -2448 416 -2448 256
WIRE -2448 416 -2624 416
WIRE -656 416 -656 320
WIRE -656 416 -2448 416
WIRE -512 416 -512 144
WIRE -512 416 -656 416
WIRE -512 480 -512 416
FLAG -512 480 0
FLAG -3184 -320 charge_pmos
FLAG -3184 -272 charge_nmos
FLAG -2352 -320 balance_pmos
FLAG -2352 -272 balance_nmos
FLAG -1488 336 0
SYMBOL cap -528 -416 R0
SYMATTR InstName C2
SYMATTR Value 99000
SYMATTR SpiceLine IC=3.3
SYMBOL cap -528 80 R0
SYMATTR InstName C1
SYMATTR Value 99000
SYMATTR SpiceLine IC=3.2
SYMBOL voltage -4000 256 R0
WINDOW 123 0 0 Left 0
WINDOW 39 0 0 Left 0
SYMATTR InstName V3
SYMATTR Value 20
SYMBOL cap -672 -416 R0
SYMATTR InstName C3
SYMATTR Value 0.0047
SYMBOL cap -672 80 R0
SYMATTR InstName C4
SYMATTR Value 0.0047
SYMBOL cap -1120 64 R0
SYMATTR InstName C5
SYMATTR Value 0.0047
SYMATTR SpiceLine IC=0
SYMBOL res -1120 176 R0
SYMATTR InstName R1
SYMATTR Value 1
SYMBOL nmos -912 368 R270
SYMATTR InstName M1
SYMATTR Value PSMN0R925YLC
SYMBOL nmos -912 -176 R270
SYMATTR InstName M2
SYMATTR Value PSMN0R925YLC
SYMBOL cap -1120 -464 R0
SYMATTR InstName C6
SYMATTR Value 0.0047
SYMATTR SpiceLine IC=0
SYMBOL res -1120 -368 R0
SYMATTR InstName R2
SYMATTR Value 1
SYMBOL pmos -912 -16 R270
SYMATTR InstName M3
SYMATTR Value FDS6575
SYMBOL pmos -912 -512 R270
SYMATTR InstName M4
SYMATTR Value FDS6575
SYMBOL voltage -3856 256 R0
WINDOW 123 0 0 Left 0
WINDOW 39 0 0 Left 0
SYMATTR InstName V1
SYMATTR Value PULSE(0 3.3 0.1 0 0 0.005 0.01)
SYMBOL nmos -3504 160 R0
SYMATTR InstName M5
SYMATTR Value PSMN0R925YLC
SYMBOL nmos -3328 160 R0
SYMATTR InstName M6
SYMATTR Value PSMN0R925YLC
SYMBOL res -3296 -544 R0
SYMATTR InstName R4
SYMATTR Value 1000
SYMBOL res -3472 -544 R0
SYMATTR InstName R3
SYMATTR Value 1000
SYMBOL voltage -3024 256 R0
WINDOW 123 0 0 Left 0
WINDOW 39 0 0 Left 0
SYMATTR InstName V2
SYMATTR Value PULSE(0 3.3 0.1075 0 0 0.002 0.01)
SYMBOL nmos -2672 160 R0
SYMATTR InstName M7
SYMATTR Value PSMN0R925YLC
SYMBOL nmos -2496 160 R0
SYMATTR InstName M8
SYMATTR Value PSMN0R925YLC
SYMBOL res -2464 -544 R0
SYMATTR InstName R5
SYMATTR Value 1000
SYMBOL res -2640 -544 R0
SYMATTR InstName R6
SYMATTR Value 1000
SYMBOL pmos -1280 -512 M270
SYMATTR InstName M9
SYMATTR Value FDS6575
SYMBOL pmos -1264 -16 M270
SYMATTR InstName M10
SYMATTR Value FDS6575
SYMBOL nmos -1264 -176 M270
SYMATTR InstName M11
SYMATTR Value PSMN0R925YLC
SYMBOL nmos -1248 368 M270
SYMATTR InstName M12
SYMATTR Value PSMN0R925YLC
TEXT -1184 -800 Left 2 !.tran 1
