Version 4
SHEET 1 1156 772
WIRE -816 -400 -1040 -400
WIRE -432 -400 -816 -400
WIRE -1040 -288 -1040 -400
WIRE -816 -288 -816 -400
WIRE -432 -288 -432 -400
WIRE -1088 -272 -1552 -272
WIRE -1040 -112 -1040 -192
WIRE -816 -112 -816 -224
WIRE -816 -112 -1040 -112
WIRE -672 -112 -816 -112
WIRE -432 -112 -432 -224
WIRE -432 -112 -592 -112
WIRE -1040 -48 -1040 -112
WIRE -816 -32 -816 -112
WIRE -432 -16 -432 -112
WIRE -1088 32 -1200 32
WIRE -1040 144 -1040 48
WIRE -816 144 -816 32
WIRE -816 144 -1040 144
WIRE -432 144 -432 48
WIRE -432 144 -816 144
WIRE -1552 224 -1552 -272
WIRE -1200 224 -1200 32
WIRE -1552 384 -1552 304
WIRE -1200 384 -1200 304
WIRE -1200 384 -1552 384
WIRE -432 384 -432 144
WIRE -432 384 -1200 384
WIRE -1552 416 -1552 384
FLAG -1552 416 0
SYMBOL cap -448 -288 R0
SYMATTR InstName C2
SYMATTR Value 1
SYMATTR SpiceLine IC=3.3
SYMBOL voltage -1552 208 R0
WINDOW 123 0 0 Left 0
WINDOW 39 0 0 Left 0
SYMATTR InstName V2
SYMATTR Value PULSE(20 0 0.1 0 0 0.0075 0.02)
SYMBOL pmos -1088 -192 M180
SYMATTR InstName M4
SYMATTR Value Si7137DP
SYMBOL nmos -1088 -48 R0
SYMATTR InstName M6
SYMATTR Value PSMN0R925YLC
SYMBOL cap -448 -16 R0
SYMATTR InstName C1
SYMATTR Value 1
SYMATTR SpiceLine IC=3.2
SYMBOL ind -688 -96 R270
WINDOW 0 32 56 VTop 2
WINDOW 3 5 56 VBottom 2
SYMATTR InstName L1
SYMATTR Value 0.1
SYMBOL voltage -1200 208 R0
WINDOW 123 0 0 Left 0
WINDOW 39 0 0 Left 0
SYMATTR InstName V1
SYMATTR Value PULSE(0 20 0.11 0 0 0.0025 0.02)
SYMBOL schottky -800 -224 R180
WINDOW 0 24 64 Left 2
WINDOW 3 24 0 Left 2
SYMATTR InstName D3
SYMBOL schottky -800 32 R180
WINDOW 0 24 64 Left 2
WINDOW 3 24 0 Left 2
SYMATTR InstName D1
TEXT -2120 336 Left 2 !.tran 1
