Version 4
SHEET 1 1372 852
WIRE 736 -368 464 -368
WIRE 1008 -352 832 -352
WIRE 1200 -352 1072 -352
WIRE 736 -304 736 -368
WIRE 736 -176 736 -224
WIRE 832 -176 832 -352
WIRE 1200 -64 1200 -352
WIRE 272 -48 -16 -48
WIRE 464 -48 464 -368
WIRE 464 -48 368 -48
WIRE -16 -16 -16 -48
WIRE 352 48 352 0
WIRE -16 272 -16 48
WIRE 352 272 352 128
WIRE 352 272 -16 272
WIRE 736 272 736 16
WIRE 736 272 352 272
WIRE 832 272 832 16
WIRE 832 272 736 272
WIRE 1200 272 1200 0
WIRE 1200 272 832 272
WIRE -16 320 -16 272
FLAG -16 320 0
SYMBOL cap -32 -16 R0
SYMATTR InstName C2
SYMATTR Value 99000
SYMATTR SpiceLine Rser=0.2,IC=3.3
SYMBOL nmos 272 0 R270
SYMATTR InstName M1
SYMATTR Value BSB012N03LX3
SYMBOL schottky 1008 -368 M90
WINDOW 0 0 32 VBottom 2
WINDOW 3 32 32 VTop 2
SYMATTR InstName D1
SYMATTR Value 1N5817
SYMATTR Description Diode
SYMATTR Type diode
SYMBOL voltage 352 32 R0
WINDOW 123 0 0 Left 0
WINDOW 39 0 0 Left 0
SYMATTR InstName V1
SYMATTR Value PULSE(0 18 0 0 0 0.001 0.003)
SYMBOL Contrib\\Wurth\\EMC-Components\\CommonModeChokes\\WE-CMB 784 -80 R270
SYMATTR InstName L2
SYMBOL res 720 -320 R0
SYMATTR InstName R1
SYMATTR Value 1.5
SYMBOL cap 1184 -64 R0
SYMATTR InstName C5
SYMATTR Value 99000
SYMATTR SpiceLine Rser=0.2,IC=0
TEXT -40 616 Left 2 !.tran 100
